#
# Generated by PyRED version JAN-2025
#     http://q4md-forcefieldtools.org
#
@<TRIPOS>MOLECULE
BRL
    44    46     1     0     1
SMALL
USER_CHARGES
@<TRIPOS>ATOM
   1 S1    -3.928001   1.317637   0.670215 S    1   BRL -0.1789  0.0000 ****
   2 C2    -5.637873   1.792896   0.631275 C    1   BRL  0.4879  0.0000 ****
   3 O2    -6.133421   2.623571   1.310522 O    1   BRL -0.4498  0.0000 ****
   4 N3    -6.306391   1.041978  -0.309148 NA   1   BRL -0.4312  0.0000 ****
   5 HN3   -7.286320   1.179997  -0.445764 H    1   BRL  0.3431  0.0000 ****
   6 C4    -5.621185   0.100683  -1.030124 C    1   BRL  0.5359  0.0000 ****
   7 O4    -6.115423  -0.609227  -1.844740 O    1   BRL -0.5239  0.0000 ****
   8 C5    -4.144048   0.079972  -0.657741 CT   1   BRL  0.0695  0.0000 ****
   9 H5    -3.596681   0.415751  -1.528845 H1   1   BRL  0.0745  0.0000 ****
  10 C6    -3.681959  -1.339348  -0.285163 CT   1   BRL -0.0254  0.0000 ****
  11 H62   -4.212607  -1.662157   0.603936 HC   1   BRL  0.0482  0.0000 ****
  12 H61   -3.990797  -1.989469  -1.095629 HC   1   BRL  0.0482  0.0000 ****
  13 C7    -2.187748  -1.445536  -0.070483 CA   1   BRL -0.0340  0.0000 ****
  14 C8    -1.322769  -1.571650  -1.145067 CA   1   BRL -0.1277  0.0000 ****
  15 H8    -1.718490  -1.614450  -2.145896 HA   1   BRL  0.1322  0.0000 ****
  16 C9     0.052096  -1.656135  -0.974473 CA   1   BRL -0.1907  0.0000 ****
  17 H9     0.681399  -1.756803  -1.836829 HA   1   BRL  0.1236  0.0000 ****
  18 C10    0.587132  -1.616551   0.304750 C    1   BRL  0.2303  0.0000 ****
  19 C11   -0.268080  -1.497748   1.396262 CA   1   BRL -0.1907  0.0000 ****
  20 H11    0.156096  -1.475229   2.382805 HA   1   BRL  0.1236  0.0000 ****
  21 C12   -1.630942  -1.415149   1.206818 CA   1   BRL -0.1277  0.0000 ****
  22 H12   -2.272360  -1.327742   2.066057 HA   1   BRL  0.1322  0.0000 ****
  23 O13    1.901148  -1.695632   0.587611 OS   1   BRL -0.2618  0.0000 ****
  24 C14    2.848605  -1.785781  -0.450982 CT   1   BRL  0.1252  0.0000 ****
  25 H142   2.700467  -2.707966  -1.006921 H1   1   BRL  0.0377  0.0000 ****
  26 H141   2.746796  -0.948763  -1.129438 H1   1   BRL  0.0377  0.0000 ****
  27 C15    4.231831  -1.786801   0.176412 CT   1   BRL -0.0445  0.0000 ****
  28 H152   4.955945  -1.991816  -0.597140 H1   1   BRL  0.0677  0.0000 ****
  29 H151   4.284622  -2.586889   0.904170 H1   1   BRL  0.0677  0.0000 ****
  30 N16    4.583397  -0.548941   0.842455 N2   1   BRL -0.2796  0.0000 ****
  31 C16    4.241373  -0.379875   2.238256 CT   1   BRL -0.1273  0.0000 ****
  32 H163   3.857462  -1.313062   2.618921 H1   1   BRL  0.0751  0.0000 ****
  33 H162   5.111208  -0.106665   2.828238 H1   1   BRL  0.0751  0.0000 ****
  34 H161   3.474201   0.375188   2.383017 H1   1   BRL  0.0751  0.0000 ****
  35 C17    5.054665   0.510229   0.111951 CM   1   BRL  0.5909  0.0000 ****
  36 N18    5.215792   0.322904  -1.190503 NC   1   BRL -0.4974  0.0000 ****
  37 C19    5.691990   1.313238  -1.928130 CA   1   BRL  0.1088  0.0000 ****
  38 H19    5.802024   1.094740  -2.976747 H4   1   BRL  0.1084  0.0000 ****
  39 C20    6.031561   2.553298  -1.438259 CA   1   BRL -0.2456  0.0000 ****
  40 H20    6.410724   3.322522  -2.083620 HA   1   BRL  0.1304  0.0000 ****
  41 C21    5.852020   2.755994  -0.073729 CA   1   BRL -0.0486  0.0000 ****
  42 H21    6.094786   3.705035   0.371312 HA   1   BRL  0.1522  0.0000 ****
  43 C22    5.362753   1.745361   0.716936 CA   1   BRL -0.3768  0.0000 ****
  44 H22    5.224987   1.901729   1.767114 HA   1   BRL  0.1604  0.0000 ****
@<TRIPOS>BOND
    1     1     2 1
    2     1     8 1
    3     2     3 1
    4     2     4 1
    5     4     5 1
    6     4     6 1
    7     6     7 1
    8     6     8 1
    9     8     9 1
   10     8    10 1
   11    10    11 1
   12    10    12 1
   13    10    13 1
   14    13    14 1
   15    13    21 1
   16    14    15 1
   17    14    16 1
   18    16    17 1
   19    16    18 1
   20    18    19 1
   21    18    23 1
   22    19    20 1
   23    19    21 1
   24    21    22 1
   25    23    24 1
   26    24    25 1
   27    24    26 1
   28    24    27 1
   29    27    28 1
   30    27    29 1
   31    27    30 1
   32    30    31 1
   33    30    35 1
   34    31    32 1
   35    31    33 1
   36    31    34 1
   37    35    36 1
   38    35    43 1
   39    36    37 1
   40    37    38 1
   41    37    39 1
   42    39    40 1
   43    39    41 1
   44    41    42 1
   45    41    43 1
   46    43    44 1
@<TRIPOS>SUBSTRUCTURE
      1 BRL               1 ****               0 ****  ****
@<TRIPOS>HEADTAIL
0 0
0 0
@<TRIPOS>RESIDUECONNECT
1 0 0 0 0 0 0
